<?xml version="1.0" encoding="UTF-8"?>

<!-- generated on 2025-09-03 14:25:50 by Eclipse SUMO netconvert Version 1.24.0
<netconvertConfiguration xmlns:xsi="http://www.w3.org/2001/XMLSchema-instance" xsi:noNamespaceSchemaLocation="http://sumo.dlr.de/xsd/netconvertConfiguration.xsd">

    <input>
        <type-files value="/usr/share/sumo/tools/../data/typemap/osmNetconvert.typ.xml"/>
        <osm-files value="osm_bbox.osm.xml.gz"/>
    </input>

    <output>
        <output-file value="osm.net.xml.gz"/>
        <output.street-names value="true"/>
        <output.original-names value="true"/>
    </output>

    <projection>
        <proj.utm value="true"/>
    </projection>

    <processing>
        <geometry.remove value="true"/>
        <roundabouts.guess value="true"/>
    </processing>

    <tls_building>
        <tls.discard-simple value="true"/>
        <tls.join value="true"/>
        <tls.guess-signals value="true"/>
        <tls.default-type value="actuated"/>
    </tls_building>

    <ramp_guessing>
        <ramps.guess value="true"/>
    </ramp_guessing>

    <junctions>
        <junctions.join value="true"/>
        <junctions.corner-detail value="5"/>
    </junctions>

</netconvertConfiguration>
-->

<net version="1.20" junctionCornerDetail="5" limitTurnSpeed="5.50" xmlns:xsi="http://www.w3.org/2001/XMLSchema-instance" xsi:noNamespaceSchemaLocation="http://sumo.dlr.de/xsd/net_file.xsd">

    <location netOffset="-529034.61,-4554345.44" convBoundary="0.00,0.00,6840.18,4121.67" origBoundary="-8.653842,41.139852,-8.572434,41.176833" projParameter="+proj=utm +zone=29 +ellps=WGS84 +datum=WGS84 +units=m +no_defs"/>

    <type id="highway.motorway" priority="14" numLanes="2" speed="39.44" allow="private emergency authority army vip passenger hov taxi bus coach delivery truck trailer motorcycle evehicle custom1 custom2" oneway="1"/>
    <type id="highway.motorway_link" priority="9" numLanes="1" speed="22.22" allow="private emergency authority army vip passenger hov taxi bus coach delivery truck trailer motorcycle evehicle custom1 custom2" oneway="1"/>

    <edge id=":10840573819_0" function="internal">
        <lane id=":10840573819_0_0" index="0" allow="private emergency authority army vip passenger hov taxi bus coach delivery truck trailer motorcycle evehicle custom1 custom2" speed="22.22" length="7.99" shape="1215.44,522.62 1213.90,530.38"/>
        <lane id=":10840573819_0_1" index="1" allow="private emergency authority army vip passenger hov taxi bus coach delivery truck trailer motorcycle evehicle custom1 custom2" speed="22.22" length="7.99" shape="1212.31,521.95 1210.75,529.79"/>
        <lane id=":10840573819_0_2" index="2" allow="private emergency authority army vip passenger hov taxi bus coach delivery truck trailer motorcycle evehicle custom1 custom2" speed="22.22" length="7.99" shape="1209.18,521.29 1207.61,529.20"/>
    </edge>
    <edge id=":10858341660_0" function="internal">
        <lane id=":10858341660_0_0" index="0" allow="private emergency authority army vip passenger hov taxi bus coach delivery truck trailer motorcycle evehicle custom1 custom2" speed="22.22" length="8.20" shape="3032.81,3767.32 3035.22,3767.30 3036.87,3766.91 3038.52,3766.53 3040.93,3766.54"/>
        <lane id=":10858341660_0_1" index="1" allow="private emergency authority army vip passenger hov taxi bus coach delivery truck trailer motorcycle evehicle custom1 custom2" speed="22.22" length="8.20" shape="3032.81,3767.32 3035.16,3767.79 3036.70,3768.50 3038.23,3769.21 3040.58,3769.72"/>
    </edge>
    <edge id=":10884268505_0" function="internal">
        <lane id=":10884268505_0_0" index="0" allow="private emergency authority army vip passenger hov taxi bus coach delivery truck trailer motorcycle evehicle custom1 custom2" speed="13.89" length="0.10" shape="1008.02,3164.39 1008.02,3164.39"/>
        <lane id=":10884268505_0_1" index="1" allow="private emergency authority army vip passenger hov taxi bus coach delivery truck trailer motorcycle evehicle custom1 custom2" speed="13.89" length="0.10" shape="1008.24,3161.20 1008.24,3161.20"/>
    </edge>
    <edge id=":10911688817_0" function="internal">
        <lane id=":10911688817_0_0" index="0" allow="private emergency authority army vip passenger hov taxi bus coach delivery truck trailer motorcycle evehicle custom1 custom2" speed="13.89" length="4.55" shape="801.35,3216.01 802.49,3215.28 803.26,3214.77 803.96,3214.16 804.89,3213.19"/>
    </edge>
    <edge id=":10911688817_1" function="internal">
        <lane id=":10911688817_1_0" index="0" allow="private emergency authority army vip passenger hov taxi bus coach delivery truck trailer motorcycle evehicle custom1 custom2" speed="13.89" length="8.80" shape="800.43,3220.83 802.30,3219.04 803.82,3218.07 805.36,3217.10 807.26,3215.34"/>
    </edge>
    <edge id=":10911688820_0" function="internal">
        <lane id=":10911688820_0_0" index="0" allow="private emergency authority army vip passenger hov taxi bus coach delivery truck trailer motorcycle evehicle custom1 custom2" speed="13.89" length="43.11" shape="663.52,3355.88 693.60,3325.01"/>
        <lane id=":10911688820_0_1" index="1" allow="private emergency authority army vip passenger hov taxi bus coach delivery truck trailer motorcycle evehicle custom1 custom2" speed="13.89" length="43.11" shape="665.87,3358.05 695.97,3327.16"/>
    </edge>
    <edge id=":10911688820_2" function="internal">
        <lane id=":10911688820_2_0" index="0" allow="private emergency authority army vip passenger hov taxi bus coach delivery truck trailer motorcycle evehicle custom1 custom2" speed="13.89" length="42.38" shape="668.21,3360.23 697.82,3329.90"/>
    </edge>
    <edge id=":10926721730_0" function="internal">
        <lane id=":10926721730_0_0" index="0" allow="private emergency authority army vip passenger hov taxi bus coach delivery truck trailer motorcycle evehicle custom1 custom2" speed="25.00" length="7.40" shape="4962.92,3698.84 4963.62,3700.84 4964.49,3702.06 4965.45,3703.26 4966.40,3705.19"/>
        <lane id=":10926721730_0_1" index="1" allow="private emergency authority army vip passenger hov taxi bus coach delivery truck trailer motorcycle evehicle custom1 custom2" speed="25.00" length="7.40" shape="4962.92,3698.84 4963.15,3701.04 4962.98,3702.60 4962.89,3704.14 4963.38,3706.26"/>
    </edge>
    <edge id=":11001495388_0" function="internal">
        <lane id=":11001495388_0_0" index="0" allow="private emergency authority army vip passenger hov taxi bus coach delivery truck trailer motorcycle evehicle custom1 custom2" speed="22.22" length="8.17" shape="1487.30,1208.38 1489.65,1208.88 1491.33,1208.83 1493.02,1208.75 1495.39,1209.17"/>
    </edge>
    <edge id=":11028817791_0" function="internal">
        <lane id=":11028817791_0_0" index="0" allow="private emergency authority army vip passenger hov taxi bus coach delivery truck trailer motorcycle evehicle custom1 custom2" speed="22.22" length="8.16" shape="5962.81,1945.07 5963.52,1947.29 5964.38,1948.68 5965.27,1950.07 5966.07,1952.27"/>
        <lane id=":11028817791_0_1" index="1" allow="private emergency authority army vip passenger hov taxi bus coach delivery truck trailer motorcycle evehicle custom1 custom2" speed="22.22" length="8.16" shape="5959.67,1945.71 5960.39,1947.97 5961.26,1949.39 5962.16,1950.80 5962.97,1953.04"/>
        <lane id=":11028817791_0_2" index="2" allow="private emergency authority army vip passenger hov taxi bus coach delivery truck trailer motorcycle evehicle custom1 custom2" speed="22.22" length="8.16" shape="5956.54,1946.35 5957.26,1948.65 5958.14,1950.09 5959.04,1951.53 5959.86,1953.81"/>
        <lane id=":11028817791_0_3" index="3" allow="private emergency authority army vip passenger hov taxi bus coach delivery truck trailer motorcycle evehicle custom1 custom2" speed="22.22" length="8.16" shape="5953.40,1946.99 5954.13,1949.32 5955.02,1950.80 5955.93,1952.27 5956.76,1954.58"/>
    </edge>
    <edge id=":11043139806_0" function="internal">
        <lane id=":11043139806_0_0" index="0" allow="private emergency authority army vip passenger hov taxi bus coach delivery truck trailer motorcycle evehicle custom1 custom2" speed="13.89" length="7.83" shape="1017.60,2979.55 1023.16,2973.81"/>
        <lane id=":11043139806_0_1" index="1" allow="private emergency authority army vip passenger hov taxi bus coach delivery truck trailer motorcycle evehicle custom1 custom2" speed="13.89" length="7.83" shape="1019.96,2981.72 1025.40,2976.09"/>
        <lane id=":11043139806_0_2" index="2" allow="private emergency authority army vip passenger hov taxi bus coach delivery truck trailer motorcycle evehicle custom1 custom2" speed="13.89" length="7.83" shape="1022.31,2983.88 1027.64,2978.38"/>
    </edge>
    <edge id=":1105984386_0" function="internal">
        <lane id=":1105984386_0_0" index="0" allow="private emergency authority army vip passenger hov taxi bus coach delivery truck trailer motorcycle evehicle custom1 custom2" speed="11.11" length="9.71" shape="2608.30,3827.37 2610.37,3825.62 2611.14,3823.78 2611.74,3821.72 2613.26,3819.30"/>
    </edge>
    <edge id=":1105984390_0" function="internal">
        <lane id=":1105984390_0_0" index="0" allow="private emergency authority army vip passenger hov taxi bus coach delivery truck trailer motorcycle evehicle custom1 custom2" speed="16.67" length="2.57" shape="2598.74,3739.16 2596.19,3738.85"/>
    </edge>
    <edge id=":1105984390_1" function="internal">
        <lane id=":1105984390_1_0" index="0" allow="private emergency authority army vip passenger hov taxi bus coach delivery truck trailer motorcycle evehicle custom1 custom2" speed="22.22" length="2.99" shape="2599.22,3735.99 2596.48,3735.58"/>
        <lane id=":1105984390_1_1" index="1" allow="private emergency authority army vip passenger hov taxi bus coach delivery truck trailer motorcycle evehicle custom1 custom2" speed="22.22" length="2.99" shape="2599.71,3732.83 2596.76,3732.39"/>
        <lane id=":1105984390_1_2" index="2" allow="private emergency authority army vip passenger hov taxi bus coach delivery truck trailer motorcycle evehicle custom1 custom2" speed="22.22" length="2.99" shape="2600.20,3729.67 2597.04,3729.20"/>
    </edge>
    <edge id=":11066975711_0" function="internal">
        <lane id=":11066975711_0_0" index="0" allow="private emergency authority army vip passenger hov taxi bus coach delivery truck trailer motorcycle evehicle custom1 custom2" speed="16.67" length="0.30" shape="612.78,3410.65 612.97,3410.45"/>
        <lane id=":11066975711_0_1" index="1" allow="private emergency authority army vip passenger hov taxi bus coach delivery truck trailer motorcycle evehicle custom1 custom2" speed="16.67" length="0.30" shape="615.11,3412.84 615.31,3412.63"/>
        <lane id=":11066975711_0_2" index="2" allow="private emergency authority army vip passenger hov taxi bus coach delivery truck trailer motorcycle evehicle custom1 custom2" speed="16.67" length="0.30" shape="617.44,3415.03 617.66,3414.80"/>
    </edge>
    <edge id=":1110338293_0" function="internal">
        <lane id=":1110338293_0_0" index="0" allow="private emergency authority army vip passenger hov taxi bus coach delivery truck trailer motorcycle evehicle custom1 custom2" speed="16.67" length="0.26" shape="1053.41,2935.06 1053.55,2935.19"/>
        <lane id=":1110338293_0_1" index="1" allow="private emergency authority army vip passenger hov taxi bus coach delivery truck trailer motorcycle evehicle custom1 custom2" speed="16.67" length="0.26" shape="1051.21,2937.39 1051.46,2937.61"/>
    </edge>
    <edge id=":1110673412_0" function="internal">
        <lane id=":1110673412_0_0" index="0" allow="private emergency authority army vip passenger hov taxi bus coach delivery truck trailer motorcycle evehicle custom1 custom2" speed="22.22" length="0.29" shape="2888.48,3752.10 2888.83,3752.15"/>
        <lane id=":1110673412_0_1" index="1" allow="private emergency authority army vip passenger hov taxi bus coach delivery truck trailer motorcycle evehicle custom1 custom2" speed="22.22" length="0.29" shape="2888.10,3755.28 2888.41,3755.32"/>
        <lane id=":1110673412_0_2" index="2" allow="private emergency authority army vip passenger hov taxi bus coach delivery truck trailer motorcycle evehicle custom1 custom2" speed="22.22" length="0.29" shape="2887.73,3758.46 2887.99,3758.49"/>
        <lane id=":1110673412_0_3" index="3" allow="private emergency authority army vip passenger hov taxi bus coach delivery truck trailer motorcycle evehicle custom1 custom2" speed="22.22" length="0.29" shape="2887.35,3761.63 2887.57,3761.66"/>
    </edge>
    <edge id=":1110673464_0" function="internal">
        <lane id=":1110673464_0_0" index="0" allow="private emergency authority army vip passenger hov taxi bus coach delivery truck trailer motorcycle evehicle custom1 custom2" speed="22.22" length="2.83" shape="2812.53,3769.34 2809.73,3768.99"/>
    </edge>
    <edge id=":1110673464_1" function="internal">
        <lane id=":1110673464_1_0" index="0" allow="private emergency authority army vip passenger hov taxi bus coach delivery truck trailer motorcycle evehicle custom1 custom2" speed="22.22" length="3.03" shape="2812.98,3766.17 2810.08,3765.76"/>
        <lane id=":1110673464_1_1" index="1" allow="private emergency authority army vip passenger hov taxi bus coach delivery truck trailer motorcycle evehicle custom1 custom2" speed="22.22" length="3.03" shape="2813.43,3763.00 2810.43,3762.57"/>
        <lane id=":1110673464_1_2" index="2" allow="private emergency authority army vip passenger hov taxi bus coach delivery truck trailer motorcycle evehicle custom1 custom2" speed="22.22" length="3.03" shape="2813.87,3759.83 2810.78,3759.39"/>
    </edge>
    <edge id=":1110673549_0" function="internal">
        <lane id=":1110673549_0_0" index="0" allow="private emergency authority army vip passenger hov taxi bus coach delivery truck trailer motorcycle evehicle custom1 custom2" speed="22.22" length="23.97" shape="2122.93,3636.36 2129.98,3638.30 2135.15,3639.30 2140.04,3640.01 2146.23,3641.05"/>
        <lane id=":1110673549_0_1" index="1" allow="private emergency authority army vip passenger hov taxi bus coach delivery truck trailer motorcycle evehicle custom1 custom2" speed="22.22" length="23.97" shape="2121.98,3639.41 2129.16,3641.39 2134.44,3642.42 2139.40,3643.14 2145.62,3644.19"/>
    </edge>
    <edge id=":1110673549_2" function="internal">
        <lane id=":1110673549_2_0" index="0" allow="private emergency authority army vip passenger hov taxi bus coach delivery truck trailer motorcycle evehicle custom1 custom2" speed="22.22" length="24.45" shape="2121.04,3642.47 2128.02,3644.30 2132.91,3645.08 2137.83,3645.79 2144.86,3647.42"/>
        <lane id=":1110673549_2_1" index="1" allow="private emergency authority army vip passenger hov taxi bus coach delivery truck trailer motorcycle evehicle custom1 custom2" speed="22.22" length="24.45" shape="2120.10,3645.53 2127.10,3647.37 2132.01,3648.15 2136.95,3648.87 2144.01,3650.51"/>
        <lane id=":1110673549_2_2" index="2" allow="private emergency authority army vip passenger hov taxi bus coach delivery truck trailer motorcycle evehicle custom1 custom2" speed="22.22" length="24.45" shape="2119.15,3648.59 2126.19,3650.44 2131.12,3651.22 2136.07,3651.94 2143.16,3653.59"/>
    </edge>
    <edge id=":1110673561_0" function="internal">
        <lane id=":1110673561_0_0" index="0" allow="private emergency authority army vip passenger hov taxi bus coach delivery truck trailer motorcycle evehicle custom1 custom2" speed="22.22" length="2.88" shape="2874.60,3750.39 2877.45,3750.79"/>
    </edge>
    <edge id=":1110673561_1" function="internal">
        <lane id=":1110673561_1_0" index="0" allow="private emergency authority army vip passenger hov taxi bus coach delivery truck trailer motorcycle evehicle custom1 custom2" speed="22.22" length="3.00" shape="2874.16,3753.60 2877.08,3753.97"/>
        <lane id=":1110673561_1_1" index="1" allow="private emergency authority army vip passenger hov taxi bus coach delivery truck trailer motorcycle evehicle custom1 custom2" speed="22.22" length="3.00" shape="2873.73,3756.77 2876.70,3757.15"/>
        <lane id=":1110673561_1_2" index="2" allow="private emergency authority army vip passenger hov taxi bus coach delivery truck trailer motorcycle evehicle custom1 custom2" speed="22.22" length="3.00" shape="2873.29,3759.94 2876.32,3760.33"/>
    </edge>
    <edge id=":1110673562_0" function="internal">
        <lane id=":1110673562_0_0" index="0" allow="private emergency authority army vip passenger hov taxi bus coach delivery truck trailer motorcycle evehicle custom1 custom2" speed="22.22" length="3.44" shape="2554.69,3857.09 2553.77,3856.52 2553.15,3856.10 2552.56,3855.64 2551.72,3854.95"/>
        <lane id=":1110673562_0_1" index="1" allow="private emergency authority army vip passenger hov taxi bus coach delivery truck trailer motorcycle evehicle custom1 custom2" speed="22.22" length="3.44" shape="2556.39,3854.38 2555.58,3853.88 2555.03,3853.51 2554.51,3853.11 2553.78,3852.50"/>
    </edge>
    <edge id=":1110673562_2" function="internal">
        <lane id=":1110673562_2_0" index="0" allow="private emergency authority army vip passenger hov taxi bus coach delivery truck trailer motorcycle evehicle custom1 custom2" speed="13.75" length="4.16" shape="2553.33,3859.27 2552.15,3858.89 2551.35,3858.59 2550.63,3858.16 2549.66,3857.40"/>
    </edge>
    <edge id=":1110673630_0" function="internal">
        <lane id=":1110673630_0_0" index="0" allow="private emergency authority army vip passenger hov taxi bus coach delivery truck trailer motorcycle evehicle custom1 custom2" speed="22.22" length="7.87" shape="2358.26,3671.40 2360.57,3671.67 2362.17,3671.77 2363.77,3671.80 2366.10,3671.86"/>
    </edge>
    <edge id=":1110673630_1" function="internal">
        <lane id=":1110673630_1_0" index="0" allow="private emergency authority army vip passenger hov taxi bus coach delivery truck trailer motorcycle evehicle custom1 custom2" speed="22.22" length="16.70" shape="2357.83,3674.57 2374.37,3676.88"/>
    </edge>
    <edge id=":111464592_0" function="internal">
        <lane id=":111464592_0_0" index="0" allow="private emergency authority army vip passenger hov taxi bus coach delivery truck trailer motorcycle evehicle custom1 custom2" speed="22.22" length="3.02" shape="750.65,1563.11 751.66,1560.26"/>
    </edge>
    <edge id=":111464592_1" function="internal">
        <lane id=":111464592_1_0" index="0" allow="private emergency authority army vip passenger hov taxi bus coach delivery truck trailer motorcycle evehicle custom1 custom2" speed="22.22" length="2.99" shape="753.66,1564.17 754.69,1561.35"/>
        <lane id=":111464592_1_1" index="1" allow="private emergency authority army vip passenger hov taxi bus coach delivery truck trailer motorcycle evehicle custom1 custom2" speed="22.22" length="2.99" shape="756.68,1565.24 757.71,1562.43"/>
        <lane id=":111464592_1_2" index="2" allow="private emergency authority army vip passenger hov taxi bus coach delivery truck trailer motorcycle evehicle custom1 custom2" speed="22.22" length="2.99" shape="759.70,1566.30 760.72,1563.51"/>
    </edge>
    <edge id=":111646762_0" function="internal">
        <lane id=":111646762_0_0" index="0" allow="private emergency authority army vip passenger hov taxi bus coach delivery truck trailer motorcycle evehicle custom1 custom2" speed="19.44" length="8.18" shape="770.41,3271.65 768.96,3273.51 768.28,3275.03 767.62,3276.57 766.23,3278.49"/>
        <lane id=":111646762_0_1" index="1" allow="private emergency authority army vip passenger hov taxi bus coach delivery truck trailer motorcycle evehicle custom1 custom2" speed="19.44" length="8.18" shape="768.10,3269.43 766.63,3271.32 765.94,3272.85 765.26,3274.40 763.85,3276.35"/>
        <lane id=":111646762_0_2" index="2" allow="private emergency authority army vip passenger hov taxi bus coach delivery truck trailer motorcycle evehicle custom1 custom2" speed="19.44" length="8.18" shape="765.80,3267.21 764.30,3269.12 763.59,3270.67 762.90,3272.24 761.47,3274.21"/>
    </edge>
    <edge id=":112588576_0" function="internal">
        <lane id=":112588576_0_0" index="0" allow="private emergency authority army vip passenger hov taxi bus coach delivery truck trailer motorcycle evehicle custom1 custom2" speed="13.89" length="0.26" shape="818.12,3187.73 818.32,3187.50"/>
        <lane id=":112588576_0_1" index="1" allow="private emergency authority army vip passenger hov taxi bus coach delivery truck trailer motorcycle evehicle custom1 custom2" speed="13.89" length="0.26" shape="820.57,3189.79 820.70,3189.63"/>
    </edge>
    <edge id=":112589349_0" function="internal">
        <lane id=":112589349_0_0" index="0" allow="private emergency authority army vip passenger hov taxi bus coach delivery truck trailer motorcycle evehicle custom1 custom2" speed="20.83" length="3.39" shape="848.43,3200.09 847.73,3200.81 847.29,3201.34 846.91,3201.92 846.40,3202.79"/>
    </edge>
    <edge id=":112589349_1" function="internal">
        <lane id=":112589349_1_0" index="0" allow="private emergency authority army vip passenger hov taxi bus coach delivery truck trailer motorcycle evehicle custom1 custom2" speed="19.44" length="3.38" shape="846.12,3197.86 843.76,3200.29"/>
        <lane id=":112589349_1_1" index="1" allow="private emergency authority army vip passenger hov taxi bus coach delivery truck trailer motorcycle evehicle custom1 custom2" speed="19.44" length="3.38" shape="843.82,3195.64 841.47,3198.06"/>
    </edge>
    <edge id=":112591715_0" function="internal">
        <lane id=":112591715_0_0" index="0" allow="private emergency authority army vip passenger hov taxi bus coach delivery truck trailer motorcycle evehicle custom1 custom2" speed="11.11" length="5.87" shape="1089.83,2990.08 1088.52,2989.42 1087.35,2989.82 1086.04,2990.45 1084.33,2990.51"/>
    </edge>
    <edge id=":112594210_0" function="internal">
        <lane id=":112594210_0_0" index="0" allow="private emergency authority army vip passenger hov taxi bus coach delivery truck trailer motorcycle evehicle custom1 custom2" speed="3.67" length="4.66" shape="1403.67,2735.69 1404.99,2736.28 1405.51,2737.00 1405.25,2737.85 1404.21,2738.84"/>
    </edge>
    <edge id=":112594240_0" function="internal">
        <lane id=":112594240_0_0" index="0" disallow="moped bicycle tram rail_urban rail rail_electric rail_fast ship container cable_car subway aircraft wheelchair scooter drone" speed="19.44" length="8.12" shape="1156.17,2866.50 1154.75,2868.46 1154.07,2870.02 1153.37,2871.56 1151.89,2873.46"/>
        <lane id=":112594240_0_1" index="1" disallow="moped bicycle tram rail_urban rail rail_electric rail_fast ship container cable_car subway aircraft wheelchair scooter drone" speed="19.44" length="8.12" shape="1153.78,2864.37 1152.39,2866.30 1151.73,2867.84 1151.04,2869.36 1149.59,2871.24"/>
        <lane id=":112594240_0_2" index="2" disallow="moped bicycle tram rail_urban rail rail_electric rail_fast ship container cable_car subway aircraft wheelchair scooter drone" speed="19.44" length="8.12" shape="1153.78,2864.37 1152.03,2865.95 1150.57,2866.73 1149.10,2867.49 1147.28,2869.01"/>
    </edge>
    <edge id=":112594241_0" function="internal">
        <lane id=":112594241_0_0" index="0" disallow="moped bicycle tram rail_urban rail rail_electric rail_fast ship container cable_car subway aircraft wheelchair scooter drone" speed="19.44" length="0.37" shape="1140.41,2885.74 1140.07,2886.09"/>
        <lane id=":112594241_0_1" index="1" disallow="moped bicycle tram rail_urban rail rail_electric rail_fast ship container cable_car subway aircraft wheelchair scooter drone" speed="19.44" length="0.37" shape="1138.04,2883.58 1137.79,2883.85"/>
        <lane id=":112594241_0_2" index="2" disallow="moped bicycle tram rail_urban rail rail_electric rail_fast ship container cable_car subway aircraft wheelchair scooter drone" speed="19.44" length="0.37" shape="1135.68,2881.42 1135.51,2881.60"/>
    </edge>
    <edge id=":112595515_0" function="internal">
        <lane id=":112595515_0_0" index="0" allow="private emergency authority army vip passenger hov taxi bus coach delivery truck trailer motorcycle evehicle custom1 custom2" speed="15.28" length="6.86" shape="1103.26,2879.89 1104.92,2878.72 1106.08,2877.93 1107.16,2877.05 1108.60,2875.63"/>
    </edge>
    <edge id=":112595515_1" function="internal">
        <lane id=":112595515_1_0" index="0" allow="private emergency authority army vip passenger hov taxi bus coach delivery truck trailer motorcycle evehicle custom1 custom2" speed="13.89" length="6.96" shape="1105.65,2882.46 1107.11,2880.99 1108.24,2880.11 1109.40,2879.26 1110.91,2877.84"/>
        <lane id=":112595515_1_1" index="1" allow="private emergency authority army vip passenger hov taxi bus coach delivery truck trailer motorcycle evehicle custom1 custom2" speed="13.89" length="6.96" shape="1108.04,2884.58 1109.48,2883.14 1110.60,2882.28 1111.73,2881.45 1113.22,2880.05"/>
    </edge>
    <edge id=":112597525_0" function="internal">
        <lane id=":112597525_0_0" index="0" allow="private emergency authority army vip passenger hov taxi bus coach delivery truck trailer motorcycle evehicle custom1 custom2" speed="12.50" length="0.29" shape="4768.93,3502.90 4768.96,3502.87 4768.98,3502.84 4768.99,3502.82 4769.02,3502.79"/>
        <lane id=":112597525_0_1" index="1" allow="private emergency authority army vip passenger hov taxi bus coach delivery truck trailer motorcycle evehicle custom1 custom2" speed="12.50" length="0.29" shape="4771.27,3505.08 4771.35,3504.99 4771.41,3504.92 4771.47,3504.85 4771.55,3504.75"/>
    </edge>
    <edge id=":11364765787_0" function="internal">
        <lane id=":11364765787_0_0" index="0" allow="private emergency authority army vip passenger hov taxi bus coach delivery truck trailer motorcycle evehicle custom1 custom2" speed="22.22" length="7.87" shape="1347.81,423.42 1345.84,422.25 1344.28,421.81 1342.69,421.43 1340.60,420.43"/>
    </edge>
    <edge id=":11364765792_0" function="internal">
        <lane id=":11364765792_0_0" index="0" allow="private emergency authority army vip passenger hov taxi bus coach delivery truck trailer motorcycle evehicle custom1 custom2" speed="22.22" length="8.20" shape="1238.30,443.18 1237.47,445.44 1237.26,447.12 1237.04,448.80 1236.19,451.06"/>
    </edge>
    <edge id=":114310686_0" function="internal">
        <lane id=":114310686_0_0" index="0" allow="private emergency authority army vip passenger hov taxi bus coach delivery truck trailer motorcycle evehicle custom1 custom2" speed="19.44" length="17.62" shape="6606.68,1367.74 6593.03,1356.60"/>
    </edge>
    <edge id=":114310686_1" function="internal">
        <lane id=":114310686_1_0" index="0" allow="private emergency authority army vip passenger hov taxi bus coach delivery truck trailer motorcycle evehicle custom1 custom2" speed="19.44" length="7.97" shape="6608.72,1365.27 6606.88,1363.65 6605.74,1362.41 6604.72,1361.06 6603.21,1359.11"/>
        <lane id=":114310686_1_1" index="1" allow="private emergency authority army vip passenger hov taxi bus coach delivery truck trailer motorcycle evehicle custom1 custom2" speed="19.44" length="7.97" shape="6610.75,1362.80 6609.06,1361.31 6608.02,1360.15 6607.09,1358.89 6605.70,1357.09"/>
    </edge>
    <edge id=":114310696_0" function="internal">
        <lane id=":114310696_0_0" index="0" allow="private emergency authority army vip passenger hov taxi bus coach delivery truck trailer motorcycle evehicle custom1 custom2" speed="20.83" length="3.10" shape="6332.17,1148.34 6331.34,1147.94 6330.77,1147.67 6330.18,1147.44 6329.32,1147.14"/>
    </edge>
    <edge id=":114310696_1" function="internal">
        <lane id=":114310696_1_0" index="0" allow="private emergency authority army vip passenger hov taxi bus coach delivery truck trailer motorcycle evehicle custom1 custom2" speed="19.44" length="3.01" shape="6333.23,1145.06 6330.35,1144.11"/>
        <lane id=":114310696_1_1" index="1" allow="private emergency authority army vip passenger hov taxi bus coach delivery truck trailer motorcycle evehicle custom1 custom2" speed="19.44" length="3.01" shape="6334.22,1142.02 6331.39,1141.08"/>
    </edge>
    <edge id=":114310697_0" function="internal">
        <lane id=":114310697_0_0" index="0" allow="private emergency authority army vip passenger hov taxi bus coach delivery truck trailer motorcycle evehicle custom1 custom2" speed="19.44" length="7.54" shape="6227.61,1108.99 6220.45,1106.19"/>
        <lane id=":114310697_0_1" index="1" allow="private emergency authority army vip passenger hov taxi bus coach delivery truck trailer motorcycle evehicle custom1 custom2" speed="19.44" length="7.54" shape="6228.64,1105.96 6221.74,1103.27"/>
    </edge>
    <edge id=":114310699_0" function="internal">
        <lane id=":114310699_0_0" index="0" allow="private emergency authority army vip passenger hov taxi bus coach delivery truck trailer motorcycle evehicle custom1 custom2" speed="16.67" length="18.07" shape="6171.11,1087.95 6168.04,1085.98 6164.46,1084.40 6160.33,1082.31 6155.60,1078.82"/>
    </edge>
    <edge id=":114310699_1" function="internal">
        <lane id=":114310699_1_0" index="0" allow="private emergency authority army vip passenger hov taxi bus coach delivery truck trailer motorcycle evehicle custom1 custom2" speed="19.44" length="17.34" shape="6173.10,1085.03 6168.33,1082.79 6164.95,1081.39 6161.80,1079.66 6157.72,1076.42"/>
        <lane id=":114310699_1_1" index="1" allow="private emergency authority army vip passenger hov taxi bus coach delivery truck trailer motorcycle evehicle custom1 custom2" speed="19.44" length="17.34" shape="6174.58,1082.20 6170.01,1080.06 6166.78,1078.75 6163.76,1077.12 6159.85,1074.03"/>
    </edge>
    <edge id=":114310705_0" function="internal">