<routes>
<vTypeDistribution id="vehDist">
    <vType id="car" probability="0.904478" accel="2.6" decel="4.5" length="4.61" minGap="2.5" tau="1.0" sigma="0.5" speedFactor="normc(0.63,0.05)" speedDev="0.15" vclass="passenger"/>
    <vType id="truck" probability="0.024531" accel="2.6" decel="4.5" length="16.64" minGap="2.5" tau="1.0" sigma="0.5" speedFactor="normc(0.56,0.05)" speedDev="0.15" vclass="truck"/>
    <vType id="van" probability="0.026853" accel="2.6" decel="4.5" length="6.39" minGap="2.5" tau="1.0" sigma="0.5" speedFactor="normc(0.60,0.05)" speedDev="0.16" vclass="passenger"/>
    <vType id="motorbike" probability="0.023610" accel="2.6" decel="4.5" length="0.99" minGap="2.5" tau="1.0" sigma="0.5" speedFactor="normc(0.72,0.05)" speedDev="0.16" vclass="motorcycle"/>
    <vType id="bus" probability="0.007337" accel="2.6" decel="4.5" length="12.80" minGap="2.5" tau="1.0" sigma="0.5" speedFactor="normc(0.55,0.05)" speedDev="0.14" vclass="bus"/>
    <vType id="lorry" probability="0.011043" accel="2.6" decel="4.5" length="8.50" minGap="2.5" tau="1.0" sigma="0.5" speedFactor="normc(0.57,0.05)" speedDev="0.14" vclass="truck"/>
    <vType id="car_with_trailer" probability="0.001174" accel="2.6" decel="4.5" length="10.00" minGap="2.5" tau="1.0" sigma="0.5" speedFactor="normc(0.51,0.05)" speedDev="0.17" vclass="passenger"/>
    <vType id="lorry_with_trailer" probability="0.001137" accel="2.6" decel="4.5" length="18.64" minGap="2.5" tau="1.0" sigma="0.5" speedFactor="normc(0.57,0.05)" speedDev="0.15" vclass="truck"/>
</vTypeDistribution>
    <route id="118670828#0_35539503.qPKW.0" edges="118670828#0 480146192 480148052 480148036 497147261 34884993 35539503"/>
    <route id="12386249_95841150.qPKW.0" edges="12386249 479127842 479127840 1175924414 4256507 479127830 479127829 398030858 479127828 105482346 479187304 1373361029 95841150"/>
    <route id="13258445_13713844.qPKW.0" edges="13258445 223287717 1192089883 1174319876 453763790 1171311247 479127833 1174319879 479127832 4256484 479127846 106441012 479127845 13713844"/>
    <route id="13712337#0_597084095.qPKW.0" edges="13712337#0 13712337#0-AddedOffRampEdge 13713752 13713756-AddedOnRampEdge 13713756 597084096 453955770 453955770-AddedOffRampEdge 63202741 479165072 415566516 447313531 447313062 447313532 37406652 37406652-AddedOffRampEdge 453294700 597084095"/>
    <route id="13797988#0_1197158150#0.qPKW.0" edges="13797988#0 13797988#1-AddedOnRampEdge 13797988#1 1167578689 479365561 479365562 13798242 1197158149 1197158150#0"/>
    <route id="13798105_30911274#0.qPKW.0" edges="13798105 1050315362 480140406 1174008829 478886779 478886778 345566829 345566831 478886777 478886777-AddedOffRampEdge 478886776 30911274#0"/>
    <route id="13798272_13797865#1.qPKW.0" edges="13798272 480084928 479365566#1-AddedOnRampEdge 479365566#1 479365565 480083543 13797865#0 13797865#0-AddedOffRampEdge 13797865#1"/>
    <route id="13860800#0_480140400.qPKW.0" edges="13860800#0 13860802 35006697 839842697 480142667 478882418 478882416 478882414 478882413 13798158 13798158-AddedOffRampEdge 480140400"/>
    <route id="34712768#0_140054045.qPKW.0" edges="34712768#0 34712768#1 1187721765-AddedOnRampEdge 1187721765 508107809 29036532 508107803 497150666 35446606 497150664 29036539 497150660 1329955117 29036544 497153702 140054045"/>
    <route id="365315020_37856708#0.qPKW.0" edges="365315020 29036547 497150661 29036540 497925444 484986691 508107814 1297166251 1187721767 1187721766 480148045 480148041-AddedOnRampEdge 480148041 478886770 478886769 478886768 37856708#0"/>
    <route id="367477475_13712770#1.qPKW.0" edges="367477475 367461723 4259345 478882416 478882414 478882413 29036509 479365566#0 479365566#1-AddedOnRampEdge 479365566#1 479365565 479365568 479192142 479192141 479192140 35044066 479192138 479187303 479192145 35047582 398030856 479127848 398030857 398030861 105482347 479127846 106441012 479127845 479127844 479181462 479181124 479178724 479178722 13712407 13712770#0 13712770#1-AddedOnRampEdge 13712770#1"/>
    <route id="460986038_367461722.qPKW.0" edges="460986038 460986038-AddedOffRampEdge 460986037 1165499598 483715765 12300807 12300807-AddedOffRampEdge 460839284 35539786 1165499578 447313060 447313060-AddedOffRampEdge 447313061 63202744 479165875 453955769 479127855 479127854 106441015 398030859 398030858 479127828 105482346 479187304 453274475 479187301 1174461335 479192143 95841156 37113029 453274470 479365561 479365562 479365563 478886779 478886778 4259341 345566834 29036513 367461722"/>
    <route id="547657332_367461722.qPKW.0" edges="547657332 480140406 1174008829 478886779 478886778 4259341 345566834 29036513 367461722"/>
    <route id="118670828#0_35539503.qPKW.5.0" edges="118670828#0 480146192 480148052 480148036 497147261 34884993 35539503"/>
    <route id="12386249_95841150.qPKW.5.0" edges="12386249 479127842 479127840 1175924414 4256507 479127830 479127829 398030858 479127828 105482346 479187304 1373361029 95841150"/>
    <route id="13258445_13713844.qPKW.5.0" edges="13258445 223287717 1192089883 1174319876 453763790 1171311247 479127833 1174319879 479127832 4256484 479127846 106441012 479127845 13713844"/>
    <route id="13712337#0_597084095.qPKW.5.0" edges="13712337#0 13712337#0-AddedOffRampEdge 13713752 13713756-AddedOnRampEdge 13713756 597084096 453955770 453955770-AddedOffRampEdge 63202741 479165072 415566516 447313531 447313062 447313532 37406652 37406652-AddedOffRampEdge 453294700 597084095"/>
    <route id="13797988#0_1197158150#0.qPKW.5.0" edges="13797988#0 13797988#1-AddedOnRampEdge 13797988#1 1167578689 479365561 479365562 13798242 1197158149 1197158150#0"/>
    <route id="13798105_30911274#0.qPKW.5.0" edges="13798105 1050315362 480140406 1174008829 478886779 478886778 345566829 345566831 478886777 478886777-AddedOffRampEdge 478886776 30911274#0"/>
    <route id="13860800#0_480140400.qPKW.5.0" edges="13860800#0 13860802 35006697 839842697 480142667 478882418 478882416 478882414 478882413 13798158 13798158-AddedOffRampEdge 480140400"/>
    <route id="34712768#0_140054045.qPKW.5.0" edges="34712768#0 34712768#1 1187721765-AddedOnRampEdge 1187721765 508107809 29036532 508107803 497150666 35446606 497150664 29036539 497150660 1329955117 29036544 497153702 140054045"/>
    <route id="365315020_37856708#0.qPKW.5.0" edges="365315020 29036547 497150661 29036540 497925444 484986691 508107814 1297166251 1187721767 1187721766 480148045 480148041-AddedOnRampEdge 480148041 478886770 478886769 478886768 37856708#0"/>
    <route id="367477475_13712770#1.qPKW.5.0" edges="367477475 367461723 4259345 478882416 478882414 478882413 29036509 479365566#0 479365566#1-AddedOnRampEdge 479365566#1 479365565 479365568 479192142 479192141 479192140 35044066 479192138 479187303 479192145 35047582 398030856 479127848 398030857 398030861 105482347 479127846 106441012 479127845 479127844 479181462 479181124 479178724 479178722 13712407 13712770#0 13712770#1-AddedOnRampEdge 13712770#1"/>
    <route id="460986038_367461722.qPKW.5.0" edges="460986038 460986038-AddedOffRampEdge 460986037 1165499598 483715765 12300807 12300807-AddedOffRampEdge 460839284 35539786 1165499578 447313060 447313060-AddedOffRampEdge 447313061 63202744 479165875 453955769 479127855 479127854 106441015 398030859 398030858 479127828 105482346 479187304 453274475 479187301 1174461335 479192143 95841156 37113029 453274470 479365561 479365562 479365563 478886779 478886778 4259341 345566834 29036513 367461722"/>
    <route id="466418662#0_453764134.qPKW.5.0" edges="466418662#0 835878391#1 479165875 453955769 479127855 479127854 386578590 663340772 8137307 453764134"/>
    <route id="547657332_367461722.qPKW.5.0" edges="547657332 480140406 1174008829 478886779 478886778 4259341 345566834 29036513 367461722"/>
    <route id="95841131_232674530.qPKW.5.0" edges="95841131 1165499584 1009943383 1165499582 479187303 479192145 35047582 398030856 479127848 398030863 1171297152 1171297151 158906049 232674530"/>
    <route id="118670828#0_35539503.qPKW.10.0" edges="118670828#0 480146192 480148052 480148036 497147261 34884993 35539503"/>
    <route id="13258445_95841150.qPKW.10.0" edges="13258445 223287717 1192089883 1174319876 453763790 1171311247 479127833 1174319879 479127832 28618310 95802281 95802285 479127830 479127829 398030858 479127828 105482346 479187304 1373361029 95841150"/>
    <route id="13712337#0_597084095.qPKW.10.0" edges="13712337#0 13712337#0-AddedOffRampEdge 13713752 13713756-AddedOnRampEdge 13713756 597084096 453955770 453955770-AddedOffRampEdge 63202741 479165072 415566516 447313531 447313062 447313532 37406652 37406652-AddedOffRampEdge 453294700 597084095"/>
    <route id="13797988#0_1197158150#0.qPKW.10.0" edges="13797988#0 13797988#1-AddedOnRampEdge 13797988#1 1167578689 479365561 479365562 13798242 1197158149 1197158150#0"/>
    <route id="13798105_30911274#0.qPKW.10.0" edges="13798105 1050315362 480140406 1174008829 478886779 478886778 345566829 345566831 478886777 478886777-AddedOffRampEdge 478886776 30911274#0"/>
    <route id="13860800#0_480140400.qPKW.10.0" edges="13860800#0 13860802 35006697 839842697 480142667 478882418 478882416 478882414 478882413 13798158 13798158-AddedOffRampEdge 480140400"/>
    <route id="34712768#0_140054045.qPKW.10.0" edges="34712768#0 34712768#1 1187721765-AddedOnRampEdge 1187721765 508107809 29036532 508107803 497150666 35446606 497150664 29036539 497150660 1329955117 29036544 497153702 140054045"/>
    <route id="365315020_37856708#0.qPKW.10.0" edges="365315020 29036547 497150661 29036540 497925444 484986691 508107814 1297166251 1187721767 1187721766 480148045 480148041-AddedOnRampEdge 480148041 478886770 478886769 478886768 37856708#0"/>
    <route id="367477475_13712770#1.qPKW.10.0" edges="367477475 367461723 4259345 478882416 478882414 478882413 29036509 479365566#0 479365566#1-AddedOnRampEdge 479365566#1 479365565 479365568 479192142 479192141 479192140 35044066 479192138 479187303 479192145 35047582 398030856 479127848 398030857 398030861 105482347 479127846 106441012 479127845 479127844 479181462 479181124 479178724 479178722 13712407 13712770#0 13712770#1-AddedOnRampEdge 13712770#1"/>
    <route id="40900900_13713844.qPKW.10.0" edges="40900900 40900898 1174319877 453763790 1171311247 479127833 1174319879 479127832 4256484 479127846 106441012 479127845 13713844"/>
    <route id="460986038_367461722.qPKW.10.0" edges="460986038 460986038-AddedOffRampEdge 460986037 1165499598 483715765 12300807 12300807-AddedOffRampEdge 460839284 35539786 1165499578 447313060 447313060-AddedOffRampEdge 447313061 63202744 479165875 453955769 479127855 479127854 106441015 398030859 398030858 479127828 105482346 479187304 453274475 479187301 1174461335 479192143 95841156 37113029 453274470 479365561 479365562 479365563 478886779 478886778 4259341 345566834 29036513 367461722"/>
    <route id="466418662#0_453764134.qPKW.10.0" edges="466418662#0 835878391#1 479165875 453955769 479127855 479127854 386578590 663340772 8137307 453764134"/>
    <route id="547657332_367461722.qPKW.10.0" edges="547657332 480140406 1174008829 478886779 478886778 4259341 345566834 29036513 367461722"/>
    <route id="95841131_232674530.qPKW.10.0" edges="95841131 1165499584 1009943383 1165499582 479187303 479192145 35047582 398030856 479127848 398030863 1171297152 1171297151 158906049 232674530"/>
    <route id="118670828#0_35539503.qPKW.15.0" edges="118670828#0 480146192 480148052 480148036 497147261 34884993 35539503"/>
    <route id="12386249_95841150.qPKW.15.0" edges="12386249 479127842 479127840 1175924414 4256507 479127830 479127829 398030858 479127828 105482346 479187304 1373361029 95841150"/>
    <route id="13258445_13713844.qPKW.15.0" edges="13258445 223287717 1192089883 1174319876 453763790 1171311247 479127833 1174319879 479127832 4256484 479127846 106441012 479127845 13713844"/>
    <route id="13712337#0_597084095.qPKW.15.0" edges="13712337#0 13712337#0-AddedOffRampEdge 13713752 13713756-AddedOnRampEdge 13713756 597084096 453955770 453955770-AddedOffRampEdge 63202741 479165072 415566516 447313531 447313062 447313532 37406652 37406652-AddedOffRampEdge 453294700 597084095"/>
    <route id="13797988#0_1197158150#0.qPKW.15.0" edges="13797988#0 13797988#1-AddedOnRampEdge 13797988#1 1167578689 479365561 479365562 13798242 1197158149 1197158150#0"/>
    <route id="13798105_30911274#0.qPKW.15.0" edges="13798105 1050315362 480140406 1174008829 478886779 478886778 345566829 345566831 478886777 478886777-AddedOffRampEdge 478886776 30911274#0"/>
    <route id="13860800#0_480140400.qPKW.15.0" edges="13860800#0 13860802 35006697 839842697 480142667 478882418 478882416 478882414 478882413 13798158 13798158-AddedOffRampEdge 480140400"/>
    <route id="34712768#0_140054045.qPKW.15.0" edges="34712768#0 34712768#1 1187721765-AddedOnRampEdge 1187721765 508107809 29036532 508107803 497150666 35446606 497150664 29036539 497150660 1329955117 29036544 497153702 140054045"/>
    <route id="365315020_37856708#0.qPKW.15.0" edges="365315020 29036547 497150661 29036540 497925444 484986691 508107814 1297166251 1187721767 1187721766 480148045 480148041-AddedOnRampEdge 480148041 478886770 478886769 478886768 37856708#0"/>
    <route id="367477475_13712770#1.qPKW.15.0" edges="367477475 367461723 4259345 478882416 478882414 478882413 29036509 479365566#0 479365566#1-AddedOnRampEdge 479365566#1 479365565 479365568 479192142 479192141 479192140 35044066 479192138 479187303 479192145 35047582 398030856 479127848 398030857 398030861 105482347 479127846 106441012 479127845 479127844 479181462 479181124 479178724 479178722 13712407 13712770#0 13712770#1-AddedOnRampEdge 13712770#1"/>
    <route id="460986038_367461722.qPKW.15.0" edges="460986038 460986038-AddedOffRampEdge 460986037 1165499598 483715765 12300807 12300807-AddedOffRampEdge 460839284 35539786 1165499578 447313060 447313060-AddedOffRampEdge 447313061 63202744 479165875 453955769 479127855 479127854 106441015 398030859 398030858 479127828 105482346 479187304 453274475 479187301 1174461335 479192143 95841156 37113029 453274470 479365561 479365562 479365563 478886779 478886778 4259341 345566834 29036513 367461722"/>
    <route id="466418662#0_453764134.qPKW.15.0" edges="466418662#0 835878391#1 479165875 453955769 479127855 479127854 386578590 663340772 8137307 453764134"/>
    <route id="547657332_367461722.qPKW.15.0" edges="547657332 480140406 1174008829 478886779 478886778 4259341 345566834 29036513 367461722"/>
    <route id="95841131_232674530.qPKW.15.0" edges="95841131 1165499584 1009943383 1165499582 479187303 479192145 35047582 398030856 479127848 398030863 1171297152 1171297151 158906049 232674530"/>
    <route id="118670828#0_35539503.qPKW.20.0" edges="118670828#0 480146192 480148052 480148036 497147261 34884993 35539503"/>
    <route id="13258445_95841150.qPKW.20.0" edges="13258445 223287717 1192089883 1174319876 453763790 1171311247 479127833 1174319879 479127832 28618310 95802281 95802285 479127830 479127829 398030858 479127828 105482346 479187304 1373361029 95841150"/>
    <route id="13712337#0_597084095.qPKW.20.0" edges="13712337#0 13712337#0-AddedOffRampEdge 13713752 13713756-AddedOnRampEdge 13713756 597084096 453955770 453955770-AddedOffRampEdge 63202741 479165072 415566516 447313531 447313062 447313532 37406652 37406652-AddedOffRampEdge 453294700 597084095"/>
    <route id="13797988#0_1197158150#0.qPKW.20.0" edges="13797988#0 13797988#1-AddedOnRampEdge 13797988#1 1167578689 479365561 479365562 13798242 1197158149 1197158150#0"/>
    <route id="13798105_30911274#0.qPKW.20.0" edges="13798105 1050315362 480140406 1174008829 478886779 478886778 345566829 345566831 478886777 478886777-AddedOffRampEdge 478886776 30911274#0"/>
    <route id="13798272_13797865#1.qPKW.20.0" edges="13798272 480084928 479365566#1-AddedOnRampEdge 479365566#1 479365565 480083543 13797865#0 13797865#0-AddedOffRampEdge 13797865#1"/>
    <route id="34712768#0_140054045.qPKW.20.0" edges="34712768#0 34712768#1 1187721765-AddedOnRampEdge 1187721765 508107809 29036532 508107803 497150666 35446606 497150664 29036539 497150660 1329955117 29036544 497153702 140054045"/>
    <route id="365315020_37856708#0.qPKW.20.0" edges="365315020 29036547 497150661 29036540 497925444 484986691 508107814 1297166251 1187721767 1187721766 480148045 480148041-AddedOnRampEdge 480148041 478886770 478886769 478886768 37856708#0"/>
    <route id="367477475_13712770#1.qPKW.20.0" edges="367477475 367461723 4259345 478882416 478882414 478882413 29036509 479365566#0 479365566#1-AddedOnRampEdge 479365566#1 479365565 479365568 479192142 479192141 479192140 35044066 479192138 479187303 479192145 35047582 398030856 479127848 398030857 398030861 105482347 479127846 106441012 479127845 479127844 479181462 479181124 479178724 479178722 13712407 13712770#0 13712770#1-AddedOnRampEdge 13712770#1"/>
    <route id="40900900_13713844.qPKW.20.0" edges="40900900 40900898 1174319877 453763790 1171311247 479127833 1174319879 479127832 4256484 479127846 106441012 479127845 13713844"/>
    <route id="460986038_367461722.qPKW.20.0" edges="460986038 460986038-AddedOffRampEdge 460986037 1165499598 483715765 12300807 12300807-AddedOffRampEdge 460839284 35539786 1165499578 447313060 447313060-AddedOffRampEdge 447313061 63202744 479165875 453955769 479127855 479127854 106441015 398030859 398030858 479127828 105482346 479187304 453274475 479187301 1174461335 479192143 95841156 37113029 453274470 479365561 479365562 479365563 478886779 478886778 4259341 345566834 29036513 367461722"/>
    <route id="547657332_367461722.qPKW.20.0" edges="547657332 480140406 1174008829 478886779 478886778 4259341 345566834 29036513 367461722"/>
    <route id="95841131_232674530.qPKW.20.0" edges="95841131 1165499584 1009943383 1165499582 479187303 479192145 35047582 398030856 479127848 398030863 1171297152 1171297151 158906049 232674530"/>
    <route id="118670828#0_35539503.qPKW.25.0" edges="118670828#0 480146192 480148052 480148036 497147261 34884993 35539503"/>
    <route id="13258445_95841150.qPKW.25.0" edges="13258445 223287717 1192089883 1174319876 453763790 1171311247 479127833 1174319879 479127832 28618310 95802281 95802285 479127830 479127829 398030858 479127828 105482346 479187304 1373361029 95841150"/>
    <route id="13712337#0_597084095.qPKW.25.0" edges="13712337#0 13712337#0-AddedOffRampEdge 13713752 13713756-AddedOnRampEdge 13713756 597084096 453955770 453955770-AddedOffRampEdge 63202741 479165072 415566516 447313531 447313062 447313532 37406652 37406652-AddedOffRampEdge 453294700 597084095"/>
    <route id="13797988#0_1197158150#0.qPKW.25.0" edges="13797988#0 13797988#1-AddedOnRampEdge 13797988#1 1167578689 479365561 479365562 13798242 1197158149 1197158150#0"/>
    <route id="13798105_30911274#0.qPKW.25.0" edges="13798105 1050315362 480140406 1174008829 478886779 478886778 345566829 345566831 478886777 478886777-AddedOffRampEdge 478886776 30911274#0"/>
    <route id="13798272_13797865#1.qPKW.25.0" edges="13798272 480084928 479365566#1-AddedOnRampEdge 479365566#1 479365565 480083543 13797865#0 13797865#0-AddedOffRampEdge 13797865#1"/>
    <route id="13860800#0_480140400.qPKW.25.0" edges="13860800#0 13860802 35006697 839842697 480142667 478882418 478882416 478882414 478882413 13798158 13798158-AddedOffRampEdge 480140400"/>
    <route id="34712768#0_140054045.qPKW.25.0" edges="34712768#0 34712768#1 1187721765-AddedOnRampEdge 1187721765 508107809 29036532 508107803 497150666 35446606 497150664 29036539 497150660 1329955117 29036544 497153702 140054045"/>
    <route id="365315020_37856708#0.qPKW.25.0" edges="365315020 29036547 497150661 29036540 497925444 484986691 508107814 1297166251 1187721767 1187721766 480148045 480148041-AddedOnRampEdge 480148041 478886770 478886769 478886768 37856708#0"/>
    <route id="367477475_13712770#1.qPKW.25.0" edges="367477475 367461723 4259345 478882416 478882414 478882413 29036509 479365566#0 479365566#1-AddedOnRampEdge 479365566#1 479365565 479365568 479192142 479192141 479192140 35044066 479192138 479187303 479192145 35047582 398030856 479127848 398030857 398030861 105482347 479127846 106441012 479127845 479127844 479181462 479181124 479178724 479178722 13712407 13712770#0 13712770#1-AddedOnRampEdge 13712770#1"/>
    <route id="40900900_13713844.qPKW.25.0" edges="40900900 40900898 1174319877 453763790 1171311247 479127833 1174319879 479127832 4256484 479127846 106441012 479127845 13713844"/>
    <route id="460986038_367461722.qPKW.25.0" edges="460986038 460986038-AddedOffRampEdge 460986037 1165499598 483715765 12300807 12300807-AddedOffRampEdge 460839284 35539786 1165499578 447313060 447313060-AddedOffRampEdge 447313061 63202744 479165875 453955769 479127855 479127854 106441015 398030859 398030858 479127828 105482346 479187304 453274475 479187301 1174461335 479192143 95841156 37113029 453274470 479365561 479365562 479365563 478886779 478886778 4259341 345566834 29036513 367461722"/>
    <route id="547657332_367461722.qPKW.25.0" edges="547657332 480140406 1174008829 478886779 478886778 4259341 345566834 29036513 367461722"/>
    <route id="118670828#0_35539503.qPKW.30.0" edges="118670828#0 480146192 480148052 480148036 497147261 34884993 35539503"/>
    <route id="13258445_95841150.qPKW.30.0" edges="13258445 223287717 1192089883 1174319876 453763790 1171311247 479127833 1174319879 479127832 28618310 95802281 95802285 479127830 479127829 398030858 479127828 105482346 479187304 1373361029 95841150"/>
    <route id="13712337#0_597084095.qPKW.30.0" edges="13712337#0 13712337#0-AddedOffRampEdge 13713752 13713756-AddedOnRampEdge 13713756 597084096 453955770 453955770-AddedOffRampEdge 63202741 479165072 415566516 447313531 447313062 447313532 37406652 37406652-AddedOffRampEdge 453294700 597084095"/>
    <route id="13797988#0_1197158150#0.qPKW.30.0" edges="13797988#0 13797988#1-AddedOnRampEdge 13797988#1 1167578689 479365561 479365562 13798242 1197158149 1197158150#0"/>
    <route id="13798105_30911274#0.qPKW.30.0" edges="13798105 1050315362 480140406 1174008829 478886779 478886778 345566829 345566831 478886777 478886777-AddedOffRampEdge 478886776 30911274#0"/>
    <route id="13798272_13797865#1.qPKW.30.0" edges="13798272 480084928 479365566#1-AddedOnRampEdge 479365566#1 479365565 480083543 13797865#0 13797865#0-AddedOffRampEdge 13797865#1"/>
    <route id="13860800#0_480140400.qPKW.30.0" edges="13860800#0 13860802 35006697 839842697 480142667 478882418 478882416 478882414 478882413 13798158 13798158-AddedOffRampEdge 480140400"/>
    <route id="34712768#0_140054045.qPKW.30.0" edges="34712768#0 34712768#1 1187721765-AddedOnRampEdge 1187721765 508107809 29036532 508107803 497150666 35446606 497150664 29036539 497150660 1329955117 29036544 497153702 140054045"/>
    <route id="365315020_37856708#0.qPKW.30.0" edges="365315020 29036547 497150661 29036540 497925444 484986691 508107814 1297166251 1187721767 1187721766 480148045 480148041-AddedOnRampEdge 480148041 478886770 478886769 478886768 37856708#0"/>
    <route id="367477475_13712770#1.qPKW.30.0" edges="367477475 367461723 4259345 478882416 478882414 478882413 29036509 479365566#0 479365566#1-AddedOnRampEdge 479365566#1 479365565 479365568 479192142 479192141 479192140 35044066 479192138 479187303 479192145 35047582 398030856 479127848 398030857 398030861 105482347 479127846 106441012 479127845 479127844 479181462 479181124 479178724 479178722 13712407 13712770#0 13712770#1-AddedOnRampEdge 13712770#1"/>
    <route id="40900900_13713844.qPKW.30.0" edges="40900900 40900898 1174319877 453763790 1171311247 479127833 1174319879 479127832 4256484 479127846 106441012 479127845 13713844"/>
    <route id="460986038_367461722.qPKW.30.0" edges="460986038 460986038-AddedOffRampEdge 460986037 1165499598 483715765 12300807 12300807-AddedOffRampEdge 460839284 35539786 1165499578 447313060 447313060-AddedOffRampEdge 447313061 63202744 479165875 453955769 479127855 479127854 106441015 398030859 398030858 479127828 105482346 479187304 453274475 479187301 1174461335 479192143 95841156 37113029 453274470 479365561 479365562 479365563 478886779 478886778 4259341 345566834 29036513 367461722"/>
    <route id="547657332_367461722.qPKW.30.0" edges="547657332 480140406 1174008829 478886779 478886778 4259341 345566834 29036513 367461722"/>
    <route id="118670828#0_35539503.qPKW.35.0" edges="118670828#0 480146192 480148052 480148036 497147261 34884993 35539503"/>
    <route id="13258445_95841150.qPKW.35.0" edges="13258445 223287717 1192089883 1174319876 453763790 1171311247 479127833 1174319879 479127832 28618310 95802281 95802285 479127830 479127829 398030858 479127828 105482346 479187304 1373361029 95841150"/>
    <route id="13712337#0_597084095.qPKW.35.0" edges="13712337#0 13712337#0-AddedOffRampEdge 13713752 13713756-AddedOnRampEdge 13713756 597084096 453955770 453955770-AddedOffRampEdge 63202741 479165072 415566516 447313531 447313062 447313532 37406652 37406652-AddedOffRampEdge 453294700 597084095"/>
    <route id="13797988#0_1197158150#0.qPKW.35.0" edges="13797988#0 13797988#1-AddedOnRampEdge 13797988#1 1167578689 479365561 479365562 13798242 1197158149 1197158150#0"/>
    <route id="13798105_30911274#0.qPKW.35.0" edges="13798105 1050315362 480140406 1174008829 478886779 478886778 345566829 345566831 478886777 478886777-AddedOffRampEdge 478886776 30911274#0"/>
    <route id="13798272_13797865#1.qPKW.35.0" edges="13798272 480084928 479365566#1-AddedOnRampEdge 479365566#1 479365565 480083543 13797865#0 13797865#0-AddedOffRampEdge 13797865#1"/>
    <route id="13860800#0_480140400.qPKW.35.0" edges="13860800#0 13860802 35006697 839842697 480142667 478882418 478882416 478882414 478882413 13798158 13798158-AddedOffRampEdge 480140400"/>
    <route id="34712768#0_140054045.qPKW.35.0" edges="34712768#0 34712768#1 1187721765-AddedOnRampEdge 1187721765 508107809 29036532 508107803 497150666 35446606 497150664 29036539 497150660 1329955117 29036544 497153702 140054045"/>
    <route id="365315020_37856708#0.qPKW.35.0" edges="365315020 29036547 497150661 29036540 497925444 484986691 508107814 1297166251 1187721767 1187721766 480148045 480148041-AddedOnRampEdge 480148041 478886770 478886769 478886768 37856708#0"/>
    <route id="367477475_13712770#1.qPKW.35.0" edges="367477475 367461723 4259345 478882416 478882414 478882413 29036509 479365566#0 479365566#1-AddedOnRampEdge 479365566#1 479365565 479365568 479192142 479192141 479192140 35044066 479192138 479187303 479192145 35047582 398030856 479127848 398030857 398030861 105482347 479127846 106441012 479127845 479127844 479181462 479181124 479178724 479178722 13712407 13712770#0 13712770#1-AddedOnRampEdge 13712770#1"/>
    <route id="40900900_13713844.qPKW.35.0" edges="40900900 40900898 1174319877 453763790 1171311247 479127833 1174319879 479127832 4256484 479127846 106441012 479127845 13713844"/>
    <route id="460986038_367461722.qPKW.35.0" edges="460986038 460986038-AddedOffRampEdge 460986037 1165499598 483715765 12300807 12300807-AddedOffRampEdge 460839284 35539786 1165499578 447313060 447313060-AddedOffRampEdge 447313061 63202744 479165875 453955769 479127855 479127854 106441015 398030859 398030858 479127828 105482346 479187304 453274475 479187301 1174461335 479192143 95841156 37113029 453274470 479365561 479365562 479365563 478886779 478886778 4259341 345566834 29036513 367461722"/>
    <route id="547657332_367461722.qPKW.35.0" edges="547657332 480140406 1174008829 478886779 478886778 4259341 345566834 29036513 367461722"/>
    <route id="118670828#0_35539503.qPKW.40.0" edges="118670828#0 480146192 480148052 480148036 497147261 34884993 35539503"/>
    <route id="12386249_95841150.qPKW.40.0" edges="12386249 479127842 479127840 1175924414 4256507 479127830 479127829 398030858 479127828 105482346 479187304 1373361029 95841150"/>
    <route id="13258445_13713844.qPKW.40.0" edges="13258445 223287717 1192089883 1174319876 453763790 1171311247 479127833 1174319879 479127832 4256484 479127846 106441012 479127845 13713844"/>
    <route id="13712337#0_597084095.qPKW.40.0" edges="13712337#0 13712337#0-AddedOffRampEdge 13713752 13713756-AddedOnRampEdge 13713756 597084096 453955770 453955770-AddedOffRampEdge 63202741 479165072 415566516 447313531 447313062 447313532 37406652 37406652-AddedOffRampEdge 453294700 597084095"/>
    <route id="13797988#0_1197158150#0.qPKW.40.0" edges="13797988#0 13797988#1-AddedOnRampEdge 13797988#1 1167578689 479365561 479365562 13798242 1197158149 1197158150#0"/>
    <route id="13798105_30911274#0.qPKW.40.0" edges="13798105 1050315362 480140406 1174008829 478886779 478886778 345566829 345566831 478886777 478886777-AddedOffRampEdge 478886776 30911274#0"/>
    <route id="13798272_13797865#1.qPKW.40.0" edges="13798272 480084928 479365566#1-AddedOnRampEdge 479365566#1 479365565 480083543 13797865#0 13797865#0-AddedOffRampEdge 13797865#1"/>
    <route id="13860800#0_480140400.qPKW.40.0" edges="13860800#0 13860802 35006697 839842697 480142667 478882418 478882416 478882414 478882413 13798158 13798158-AddedOffRampEdge 480140400"/>
    <route id="34712768#0_140054045.qPKW.40.0" edges="34712768#0 34712768#1 1187721765-AddedOnRampEdge 1187721765 508107809 29036532 508107803 497150666 35446606 497150664 29036539 497150660 1329955117 29036544 497153702 140054045"/>
    <route id="365315020_37856708#0.qPKW.40.0" edges="365315020 29036547 497150661 29036540 497925444 484986691 508107814 1297166251 1187721767 1187721766 480148045 480148041-AddedOnRampEdge 480148041 478886770 478886769 478886768 37856708#0"/>
    <route id="367477475_13712770#1.qPKW.40.0" edges="367477475 367461723 4259345 478882416 478882414 478882413 29036509 479365566#0 479365566#1-AddedOnRampEdge 479365566#1 479365565 479365568 479192142 479192141 479192140 35044066 479192138 479187303 479192145 35047582 398030856 479127848 398030857 398030861 105482347 479127846 106441012 479127845 479127844 479181462 479181124 479178724 479178722 13712407 13712770#0 13712770#1-AddedOnRampEdge 13712770#1"/>